 Abaqus/Standard 2024                  DATE 14-1ÔÂ-2026 TIME 05:51:43
 SUMMARY OF JOB INFORMATION:
 STEP  INC ATT SEVERE EQUIL TOTAL  TOTAL      STEP       INC OF       DOF    IF
               DISCON ITERS ITERS  TIME/    TIME/LPF    TIME/LPF    MONITOR RIKS
               ITERS               FREQ
   1     1   1     6     0     6  0.100      0.100      0.1000    
   1     2   1     3     0     3  0.200      0.200      0.1000    
